Version 4.1
SHEET 1 4900 708
WIRE 2976 -352 2832 -352
WIRE 3120 -352 3056 -352
WIRE 3520 -352 3120 -352
WIRE 4064 -352 3888 -352
WIRE 4304 -352 4144 -352
WIRE 2832 -256 2832 -352
WIRE 3120 -144 3120 -352
WIRE 3200 -144 3120 -144
WIRE 3472 -144 3280 -144
WIRE 3648 -144 3472 -144
WIRE 3888 -144 3888 -352
WIRE 3888 -144 3728 -144
WIRE 2592 -96 2560 -96
WIRE 2800 -96 2672 -96
WIRE 3472 16 3472 -144
WIRE 3520 16 3520 -352
WIRE 2720 80 2624 80
WIRE 3280 96 3184 96
WIRE 4720 96 4448 96
WIRE 2624 112 2624 80
WIRE 2448 128 2336 128
WIRE 2560 128 2560 -96
WIRE 2560 128 2528 128
WIRE 2592 128 2560 128
WIRE 3184 128 3184 96
WIRE 2800 144 2800 -96
WIRE 2800 144 2656 144
WIRE 2944 144 2800 144
WIRE 2976 144 2944 144
WIRE 3120 144 3120 -144
WIRE 3120 144 3056 144
WIRE 3152 144 3120 144
WIRE 2592 160 2560 160
WIRE 3472 160 3472 80
WIRE 3472 160 3216 160
WIRE 3520 160 3520 80
WIRE 3520 160 3472 160
WIRE 3152 176 3120 176
WIRE 4608 240 4512 240
WIRE 2336 256 2336 128
WIRE 4048 256 3952 256
WIRE 4512 272 4512 240
WIRE 3952 288 3952 256
WIRE 4448 288 4448 96
WIRE 4480 288 4448 288
WIRE 2944 304 2944 144
WIRE 3648 304 2944 304
WIRE 3888 304 3888 -144
WIRE 3888 304 3728 304
WIRE 3920 304 3888 304
WIRE 4720 304 4720 96
WIRE 4720 304 4544 304
WIRE 4816 304 4720 304
WIRE 4304 320 4304 -352
WIRE 4304 320 3984 320
WIRE 4480 320 4304 320
WIRE 3920 336 3888 336
WIRE 4816 336 4816 304
WIRE 2720 432 2720 80
WIRE 2720 432 2336 432
WIRE 3280 432 3280 96
WIRE 3280 432 2720 432
WIRE 4048 432 4048 256
WIRE 4048 432 3280 432
WIRE 4608 432 4608 240
WIRE 4608 432 4048 432
WIRE 4816 464 4816 416
WIRE 2560 496 2560 160
WIRE 2560 496 2480 496
WIRE 3120 496 3120 176
WIRE 3120 496 2560 496
WIRE 3888 496 3888 336
WIRE 3888 496 3120 496
WIRE 2624 560 2624 176
WIRE 3184 560 3184 192
WIRE 3184 560 2624 560
WIRE 3952 560 3952 352
WIRE 3952 560 3184 560
WIRE 4512 560 4512 336
WIRE 4512 560 3952 560
WIRE 2336 608 2336 432
WIRE 2480 608 2480 496
WIRE 2624 608 2624 560
FLAG 2336 336 0
FLAG 2832 -176 0
FLAG 2624 688 0
FLAG 4816 464 0
FLAG 2480 688 0
FLAG 2336 688 0
SYMBOL voltage 2336 240 R0
WINDOW 123 0 0 Left 0
WINDOW 39 0 0 Left 0
SYMATTR InstName V10
SYMATTR Value 3
SYMBOL res 2960 160 R270
WINDOW 0 32 56 VTop 2
WINDOW 3 0 56 VBottom 2
SYMATTR InstName R5
SYMATTR Value 10kR
SYMBOL res 3632 320 R270
WINDOW 0 32 56 VTop 2
WINDOW 3 0 56 VBottom 2
SYMATTR InstName R6
SYMATTR Value 10kR
SYMBOL voltage 2832 -272 R0
WINDOW 123 0 0 Left 0
WINDOW 39 0 0 Left 0
SYMATTR InstName V11
SYMATTR Value SINE(2.5 2.5 100k)
SYMBOL res 2960 -336 R270
WINDOW 0 32 56 VTop 2
WINDOW 3 0 56 VBottom 2
SYMATTR InstName R7
SYMATTR Value 10kR
SYMBOL res 3184 -128 R270
WINDOW 0 32 56 VTop 2
WINDOW 3 0 56 VBottom 2
SYMATTR InstName R8
SYMATTR Value 10kR
SYMBOL res 3632 -128 R270
WINDOW 0 32 56 VTop 2
WINDOW 3 0 56 VBottom 2
SYMATTR InstName R9
SYMATTR Value 10kR
SYMBOL res 4048 -336 R270
WINDOW 0 32 56 VTop 2
WINDOW 3 0 56 VBottom 2
SYMATTR InstName R11
SYMATTR Value 10kR
SYMBOL voltage 2624 592 R0
WINDOW 123 0 0 Left 0
WINDOW 39 0 0 Left 0
SYMATTR InstName V4
SYMATTR Value -5
SYMBOL res 2576 -80 R270
WINDOW 0 32 56 VTop 2
WINDOW 3 0 56 VBottom 2
SYMATTR InstName R1
SYMATTR Value 10kR
SYMBOL res 2432 144 R270
WINDOW 0 32 56 VTop 2
WINDOW 3 0 56 VBottom 2
SYMATTR InstName R2
SYMATTR Value 10kR
SYMBOL res 4800 320 R0
SYMATTR InstName R3
SYMATTR Value 10kR
SYMBOL voltage 2480 592 R0
WINDOW 123 0 0 Left 0
WINDOW 39 0 0 Left 0
SYMATTR InstName V1
SYMATTR Value 0
SYMBOL voltage 2336 592 R0
WINDOW 123 0 0 Left 0
WINDOW 39 0 0 Left 0
SYMATTR InstName V2
SYMATTR Value 5
SYMBOL OpAmps\\AD8648 2624 80 R0
SYMATTR InstName U5
SYMBOL OpAmps\\AD8648 3184 96 R0
SYMATTR InstName U6
SYMBOL OpAmps\\AD8648 3952 256 R0
SYMATTR InstName U7
SYMBOL OpAmps\\AD8648 4512 240 R0
SYMATTR InstName U8
SYMBOL diode 3504 16 R0
SYMATTR InstName D4
SYMATTR Value BAV99HY
SYMBOL diode 3488 80 R180
WINDOW 0 24 64 Left 2
WINDOW 3 24 0 Left 2
SYMATTR InstName D5
SYMATTR Value BAV99HY
TEXT 2104 528 Left 2 !.tran 0.0001
