Version 4
SHEET 1 2012 772
WIRE -640 -656 -800 -656
WIRE -496 -656 -640 -656
WIRE -352 -656 -496 -656
WIRE -144 -656 -256 -656
WIRE 0 -656 -144 -656
WIRE 112 -656 0 -656
WIRE -800 -640 -800 -656
WIRE -640 -640 -640 -656
WIRE -496 -640 -496 -656
WIRE -144 -640 -144 -656
WIRE 0 -640 0 -656
WIRE -640 -560 -640 -576
WIRE -144 -560 -144 -576
WIRE -496 -544 -496 -560
WIRE -304 -544 -304 -592
WIRE -304 -544 -496 -544
WIRE 0 -544 0 -560
WIRE -800 -496 -800 -560
WIRE -304 -496 -304 -544
WIRE 480 -432 320 -432
WIRE 480 -416 480 -432
WIRE -304 -400 -304 -432
WIRE 320 -384 320 -432
WIRE 320 -288 320 -304
WIRE 112 -272 112 -656
WIRE 112 -272 -112 -272
WIRE 480 -272 480 -352
WIRE 528 -272 480 -272
WIRE 656 -272 592 -272
WIRE 768 -272 656 -272
WIRE 880 -272 768 -272
WIRE 1024 -272 880 -272
WIRE 1232 -272 1120 -272
WIRE 1344 -272 1232 -272
WIRE -112 -256 -112 -272
WIRE 112 -256 112 -272
WIRE 656 -256 656 -272
WIRE 768 -256 768 -272
WIRE 880 -256 880 -272
WIRE 1232 -256 1232 -272
WIRE 1344 -256 1344 -272
WIRE 48 -208 32 -208
WIRE 288 -160 256 -160
WIRE 384 -160 352 -160
WIRE 656 -160 656 -192
WIRE 768 -160 768 -192
WIRE 880 -160 880 -176
WIRE 1072 -160 1072 -208
WIRE 1072 -160 880 -160
WIRE 1072 -128 1072 -160
WIRE -112 -112 -112 -176
WIRE 32 -112 32 -208
WIRE 32 -112 -112 -112
WIRE 112 -112 112 -160
WIRE 256 -112 256 -160
WIRE 256 -112 112 -112
WIRE 384 -112 384 -160
WIRE 480 -112 480 -272
WIRE 480 -112 384 -112
WIRE -112 -64 -112 -112
WIRE 112 -64 112 -112
WIRE 256 -64 256 -112
WIRE 288 -64 256 -64
WIRE 384 -64 384 -112
WIRE 384 -64 352 -64
WIRE 1072 -32 1072 -64
WIRE 1232 -32 1232 -192
WIRE 1232 -32 1072 -32
WIRE 1344 -32 1344 -176
WIRE 1344 -32 1232 -32
WIRE 1456 -32 1344 -32
WIRE 1600 -32 1536 -32
WIRE -416 -16 -544 -16
WIRE -272 -16 -336 -16
WIRE -176 -16 -272 -16
WIRE 32 -16 32 -112
WIRE 48 -16 32 -16
WIRE -544 0 -544 -16
WIRE -272 0 -272 -16
WIRE 1600 32 1600 -32
WIRE -544 96 -544 80
WIRE -272 96 -272 80
WIRE -112 96 -112 32
WIRE 112 96 112 32
WIRE 480 192 480 -112
WIRE 528 192 480 192
WIRE 656 192 592 192
WIRE 768 192 656 192
WIRE 880 192 768 192
WIRE 1024 192 880 192
WIRE 1232 192 1120 192
WIRE 1344 192 1232 192
WIRE 656 208 656 192
WIRE 768 208 768 192
WIRE 880 208 880 192
WIRE 1232 208 1232 192
WIRE 1344 208 1344 192
WIRE 656 304 656 272
WIRE 768 304 768 272
WIRE 880 304 880 288
WIRE 1072 304 1072 256
WIRE 1072 304 880 304
WIRE 1072 336 1072 304
WIRE 1072 432 1072 400
WIRE 1232 432 1232 272
WIRE 1232 432 1072 432
WIRE 1344 432 1344 288
WIRE 1344 432 1232 432
WIRE 1456 432 1344 432
WIRE 1616 432 1536 432
WIRE 1616 496 1616 432
WIRE 1616 592 1616 576
FLAG 112 96 0
FLAG -112 96 0
FLAG -272 96 0
FLAG -544 96 0
FLAG -304 -400 0
FLAG -640 -560 0
FLAG -800 -496 0
FLAG -144 -560 0
FLAG 0 -544 0
FLAG 320 -288 0
FLAG 656 -160 0
FLAG 768 -160 0
FLAG 656 304 0
FLAG 768 304 0
FLAG 1600 32 0
FLAG 1616 592 0
SYMBOL npn 48 -256 R0
SYMATTR InstName Q1
SYMATTR Value BC846B
SYMBOL pnp 48 32 M180
SYMATTR InstName Q2
SYMATTR Value BC856B
SYMBOL npn -176 -64 R0
SYMATTR InstName Q3
SYMATTR Value BC846B
SYMBOL res -128 -272 R0
SYMATTR InstName R1
SYMATTR Value 4.7kR
SYMBOL res -288 -16 R0
SYMATTR InstName R2
SYMATTR Value 1kR
SYMBOL res -320 -32 R90
WINDOW 0 0 56 VBottom 2
WINDOW 3 32 56 VTop 2
SYMATTR InstName R3
SYMATTR Value 4.7kR
SYMBOL voltage -544 -16 R0
WINDOW 3 -169 158 Left 2
WINDOW 123 0 0 Left 0
WINDOW 39 -169 186 Left 2
SYMATTR Value PULSE(0 5 0 0 0 0.000008 0.000016)
SYMATTR SpiceLine Rser=1
SYMATTR InstName V1
SYMBOL cap -656 -640 R0
SYMATTR InstName C1
SYMATTR Value 1µC
SYMBOL npn -352 -592 R270
SYMATTR InstName Q4
SYMATTR Value BC846B
SYMBOL res -512 -656 R0
SYMATTR InstName R4
SYMATTR Value 1kR
SYMBOL zener -288 -432 R180
WINDOW 0 24 64 Left 2
WINDOW 3 24 0 Left 2
SYMATTR InstName D1
SYMATTR Value BZX84C10L
SYMBOL cap -160 -640 R0
SYMATTR InstName C2
SYMATTR Value 1µC
SYMBOL res -16 -656 R0
SYMATTR InstName R5
SYMATTR Value 1kR
SYMBOL voltage -800 -656 R0
WINDOW 123 0 0 Left 0
WINDOW 39 24 44 Left 2
SYMATTR SpiceLine Rser=1
SYMATTR InstName V2
SYMATTR Value 12
SYMBOL cap 352 -80 R90
WINDOW 0 0 32 VBottom 2
WINDOW 3 32 32 VTop 2
SYMATTR InstName C3
SYMATTR Value 1µ
SYMATTR SpiceLine V=50 Irms=0 Rser=0.008 Lser=0 mfg="TDK" pn="C3225X7RlHlO5M" type="X7R"
SYMBOL cap 352 -176 R90
WINDOW 0 0 32 VBottom 2
WINDOW 3 32 32 VTop 2
SYMATTR InstName C4
SYMATTR Value 1µ
SYMATTR SpiceLine V=50 Irms=0 Rser=0.008 Lser=402p mfg="Würth Elektronik" pn="885012209073 WCAP-CSGP 1210" type="X7R"
SYMBOL diode 464 -416 R0
SYMATTR InstName D3
SYMATTR Value VS-E7MH0112
SYMATTR Description Schottky diode
SYMATTR Type schottky
SYMBOL diode 528 -256 R270
WINDOW 0 32 32 VTop 2
WINDOW 3 0 32 VBottom 2
SYMATTR InstName D2
SYMATTR Value VS-E7MH0112
SYMATTR Description Schottky diode
SYMATTR Type schottky
SYMBOL cap 640 -256 R0
SYMATTR InstName C5
SYMATTR Value 1µC
SYMBOL cap 752 -256 R0
SYMATTR InstName C6
SYMATTR Value 1µC
SYMBOL npn 1024 -208 R270
SYMATTR InstName Q5
SYMATTR Value BC846B
SYMBOL res 864 -272 R0
SYMATTR InstName R6
SYMATTR Value 10kR
SYMBOL zener 1088 -64 R180
WINDOW 0 24 64 Left 2
WINDOW 3 24 0 Left 2
SYMATTR InstName D5
SYMATTR Value BZX84C10L
SYMBOL cap 1216 -256 R0
SYMATTR InstName C7
SYMATTR Value 1µC
SYMBOL res 1328 -272 R0
SYMATTR InstName R7
SYMATTR Value 1kR
SYMBOL diode 528 208 R270
WINDOW 0 32 32 VTop 2
WINDOW 3 0 32 VBottom 2
SYMATTR InstName D4
SYMATTR Value VS-E7MH0112
SYMATTR Description Schottky diode
SYMATTR Type schottky
SYMBOL cap 640 208 R0
SYMATTR InstName C8
SYMATTR Value 1µC
SYMBOL cap 752 208 R0
SYMATTR InstName C9
SYMATTR Value 1µC
SYMBOL npn 1024 256 R270
SYMATTR InstName Q6
SYMATTR Value BC846B
SYMBOL res 864 192 R0
SYMATTR InstName R8
SYMATTR Value 10kR
SYMBOL zener 1088 400 R180
WINDOW 0 24 64 Left 2
WINDOW 3 24 0 Left 2
SYMATTR InstName D6
SYMATTR Value BZX84C10L
SYMBOL cap 1216 208 R0
SYMATTR InstName C10
SYMATTR Value 1µC
SYMBOL res 1328 192 R0
SYMATTR InstName R9
SYMATTR Value 1kR
SYMBOL voltage 320 -400 R0
WINDOW 123 0 0 Left 0
WINDOW 39 24 44 Left 2
SYMATTR SpiceLine Rser=1
SYMATTR InstName V3
SYMATTR Value 12
SYMBOL res 1552 -48 R90
WINDOW 0 0 56 VBottom 2
WINDOW 3 32 56 VTop 2
SYMATTR InstName R10
SYMATTR Value 5mR
SYMBOL res 1552 416 R90
WINDOW 0 0 56 VBottom 2
WINDOW 3 32 56 VTop 2
SYMATTR InstName R11
SYMATTR Value 10R
SYMBOL voltage 1616 480 R0
WINDOW 123 0 0 Left 0
WINDOW 39 0 0 Left 0
SYMATTR InstName V4
SYMATTR Value PULSE(0 12 0 0 0 0.0005 0.001)
TEXT -832 344 Left 2 !.tran 0.003
