Version 4
SHEET 1 2304 852
WIRE -640 -656 -800 -656
WIRE -496 -656 -640 -656
WIRE -352 -656 -496 -656
WIRE -144 -656 -256 -656
WIRE 0 -656 -144 -656
WIRE 112 -656 0 -656
WIRE -800 -640 -800 -656
WIRE -640 -640 -640 -656
WIRE -496 -640 -496 -656
WIRE -144 -640 -144 -656
WIRE 0 -640 0 -656
WIRE -640 -560 -640 -576
WIRE -144 -560 -144 -576
WIRE -496 -544 -496 -560
WIRE -304 -544 -304 -592
WIRE -304 -544 -496 -544
WIRE 0 -544 0 -560
WIRE -800 -496 -800 -560
WIRE -304 -496 -304 -544
WIRE 480 -464 320 -464
WIRE 480 -416 480 -464
WIRE -304 -400 -304 -432
WIRE 320 -384 320 -464
WIRE 320 -288 320 -304
WIRE 112 -272 112 -656
WIRE 112 -272 -112 -272
WIRE -112 -256 -112 -272
WIRE 112 -256 112 -272
WIRE 48 -208 32 -208
WIRE 288 -160 256 -160
WIRE 384 -160 352 -160
WIRE -112 -112 -112 -176
WIRE 32 -112 32 -208
WIRE 32 -112 -112 -112
WIRE 112 -112 112 -160
WIRE 256 -112 256 -160
WIRE 256 -112 112 -112
WIRE 384 -112 384 -160
WIRE 480 -112 480 -352
WIRE 480 -112 384 -112
WIRE 528 -112 480 -112
WIRE 656 -112 592 -112
WIRE 768 -112 656 -112
WIRE 880 -112 768 -112
WIRE 1024 -112 880 -112
WIRE 1232 -112 1120 -112
WIRE 1360 -112 1232 -112
WIRE 1568 -112 1360 -112
WIRE 656 -96 656 -112
WIRE 768 -96 768 -112
WIRE 880 -96 880 -112
WIRE 1360 -80 1360 -112
WIRE 1568 -80 1568 -112
WIRE -112 -64 -112 -112
WIRE 112 -64 112 -112
WIRE 256 -64 256 -112
WIRE 288 -64 256 -64
WIRE 384 -64 384 -112
WIRE 384 -64 352 -64
WIRE 2192 -48 1968 -48
WIRE 1504 -32 1488 -32
WIRE -416 -16 -544 -16
WIRE -272 -16 -336 -16
WIRE -176 -16 -272 -16
WIRE 32 -16 32 -112
WIRE 48 -16 32 -16
WIRE 1968 -16 1968 -48
WIRE -544 0 -544 -16
WIRE -272 0 -272 -16
WIRE 656 0 656 -32
WIRE 768 0 768 -32
WIRE 880 0 880 -16
WIRE 1072 0 1072 -48
WIRE 1072 0 880 0
WIRE 1232 16 1232 -112
WIRE 1072 32 1072 0
WIRE 2192 32 2192 -48
WIRE 1360 64 1360 0
WIRE 1488 64 1488 -32
WIRE 1488 64 1360 64
WIRE 1568 64 1568 16
WIRE 1648 64 1568 64
WIRE 1776 64 1728 64
WIRE 1920 64 1776 64
WIRE -544 96 -544 80
WIRE -272 96 -272 80
WIRE -112 96 -112 32
WIRE 112 96 112 32
WIRE 1568 112 1568 64
WIRE 1776 112 1776 64
WIRE 1360 128 1360 64
WIRE 1488 160 1488 64
WIRE 1504 160 1488 160
WIRE 2192 192 2192 112
WIRE 1072 240 1072 96
WIRE 1232 240 1232 80
WIRE 1232 240 1072 240
WIRE 1568 240 1568 208
WIRE 1568 240 1232 240
WIRE 1776 240 1776 192
WIRE 1776 240 1568 240
WIRE 1968 240 1968 80
WIRE 1968 240 1776 240
WIRE 1968 288 1968 240
WIRE 1360 352 1360 208
WIRE 1968 384 1968 368
WIRE 1040 400 928 400
WIRE 1200 400 1120 400
WIRE 1296 400 1200 400
WIRE 928 432 928 400
WIRE 1200 432 1200 400
WIRE 1360 480 1360 448
WIRE 928 528 928 512
FLAG 112 96 0
FLAG -112 96 0
FLAG -272 96 0
FLAG -544 96 0
FLAG -304 -400 0
FLAG -640 -560 0
FLAG -800 -496 0
FLAG -144 -560 0
FLAG 0 -544 0
FLAG 320 -288 0
FLAG 656 0 0
FLAG 768 0 0
FLAG 1360 480 0
FLAG 1200 512 0
FLAG 928 528 0
FLAG 1968 384 0
FLAG 2192 192 0
SYMBOL npn 48 -256 R0
SYMATTR InstName Q1
SYMATTR Value BC846B
SYMBOL pnp 48 32 M180
SYMATTR InstName Q2
SYMATTR Value BC856B
SYMBOL npn -176 -64 R0
SYMATTR InstName Q3
SYMATTR Value BC846B
SYMBOL res -128 -272 R0
SYMATTR InstName R1
SYMATTR Value 4.7kR
SYMBOL res -288 -16 R0
SYMATTR InstName R2
SYMATTR Value 1kR
SYMBOL res -320 -32 R90
WINDOW 0 0 56 VBottom 2
WINDOW 3 32 56 VTop 2
SYMATTR InstName R3
SYMATTR Value 4.7kR
SYMBOL voltage -544 -16 R0
WINDOW 3 -169 158 Left 2
WINDOW 123 0 0 Left 0
WINDOW 39 -169 186 Left 2
SYMATTR Value PULSE(0 5 0 0 0 0.000008 0.000016)
SYMATTR SpiceLine Rser=1
SYMATTR InstName V1
SYMBOL cap -656 -640 R0
SYMATTR InstName C1
SYMATTR Value 1µC
SYMBOL npn -352 -592 R270
SYMATTR InstName Q4
SYMATTR Value BC846B
SYMBOL res -512 -656 R0
SYMATTR InstName R4
SYMATTR Value 1kR
SYMBOL zener -288 -432 R180
WINDOW 0 24 64 Left 2
WINDOW 3 24 0 Left 2
SYMATTR InstName D1
SYMATTR Value BZX84C10L
SYMBOL cap -160 -640 R0
SYMATTR InstName C2
SYMATTR Value 1µC
SYMBOL res -16 -656 R0
SYMATTR InstName R5
SYMATTR Value 1kR
SYMBOL voltage -800 -656 R0
WINDOW 123 0 0 Left 0
WINDOW 39 24 44 Left 2
SYMATTR SpiceLine Rser=1
SYMATTR InstName V2
SYMATTR Value 12
SYMBOL cap 352 -80 R90
WINDOW 0 0 32 VBottom 2
WINDOW 3 32 32 VTop 2
SYMATTR InstName C3
SYMATTR Value 1µ
SYMATTR SpiceLine V=50 Irms=0 Rser=0.008 Lser=0 mfg="TDK" pn="C3225X7RlHlO5M" type="X7R"
SYMBOL cap 352 -176 R90
WINDOW 0 0 32 VBottom 2
WINDOW 3 32 32 VTop 2
SYMATTR InstName C4
SYMATTR Value 1µ
SYMATTR SpiceLine V=50 Irms=0 Rser=0.008 Lser=402p mfg="Würth Elektronik" pn="885012209073 WCAP-CSGP 1210" type="X7R"
SYMBOL diode 464 -416 R0
SYMATTR InstName D3
SYMATTR Value VS-E7MH0112
SYMATTR Description Schottky diode
SYMATTR Type schottky
SYMBOL diode 528 -96 R270
WINDOW 0 32 32 VTop 2
WINDOW 3 0 32 VBottom 2
SYMATTR InstName D2
SYMATTR Value VS-E7MH0112
SYMATTR Description Schottky diode
SYMATTR Type schottky
SYMBOL cap 640 -96 R0
SYMATTR InstName C5
SYMATTR Value 1µC
SYMBOL cap 752 -96 R0
SYMATTR InstName C6
SYMATTR Value 1µC
SYMBOL npn 1024 -48 R270
SYMATTR InstName Q5
SYMATTR Value BC846B
SYMBOL res 864 -112 R0
SYMATTR InstName R6
SYMATTR Value 10kR
SYMBOL zener 1088 96 R180
WINDOW 0 24 64 Left 2
WINDOW 3 24 0 Left 2
SYMATTR InstName D5
SYMATTR Value BZX84C10L
SYMBOL cap 1216 16 R0
SYMATTR InstName C7
SYMATTR Value 1µC
SYMBOL voltage 320 -400 R0
WINDOW 123 0 0 Left 0
WINDOW 39 24 44 Left 2
SYMATTR SpiceLine Rser=1
SYMATTR InstName V3
SYMATTR Value 12
SYMBOL npn 1504 -80 R0
SYMATTR InstName Q7
SYMATTR Value BC846B
SYMBOL pnp 1504 208 M180
SYMATTR InstName Q8
SYMATTR Value BC856B
SYMBOL res 1344 -96 R0
SYMATTR InstName R7
SYMATTR Value 10kR
SYMBOL res 1344 112 R0
SYMATTR InstName R8
SYMATTR Value 1kR
SYMBOL npn 1296 352 R0
SYMATTR InstName Q6
SYMATTR Value BC846B
SYMBOL res 1184 416 R0
SYMATTR InstName R9
SYMATTR Value 1kR
SYMBOL res 1136 384 R90
WINDOW 0 0 56 VBottom 2
WINDOW 3 32 56 VTop 2
SYMATTR InstName R10
SYMATTR Value 4.7kR
SYMBOL voltage 928 416 R0
WINDOW 3 -51 134 Left 2
WINDOW 123 0 0 Left 0
WINDOW 39 0 0 Left 0
SYMATTR InstName V4
SYMATTR Value PULSE(0 5 0 0 0 0.000008 0.000016)
SYMBOL res 1760 96 R0
SYMATTR InstName R11
SYMATTR Value 10kR
SYMBOL res 1744 48 R90
WINDOW 0 0 56 VBottom 2
WINDOW 3 32 56 VTop 2
SYMATTR InstName R12
SYMATTR Value 10R
SYMBOL nmos 1920 -16 R0
SYMATTR InstName M1
SYMATTR Value IRFH5255
SYMBOL res 1952 272 R0
SYMATTR InstName R13
SYMATTR Value 4R
SYMBOL voltage 2192 16 R0
WINDOW 123 0 0 Left 0
WINDOW 39 24 44 Left 2
SYMATTR SpiceLine Rser=1
SYMATTR InstName V5
SYMATTR Value 12
TEXT -832 344 Left 2 !.tran 0.0003
