Version 4
SHEET 1 3236 772
WIRE -112 -944 -336 -944
WIRE 112 -944 -112 -944
WIRE 752 -944 496 -944
WIRE 2144 -944 1920 -944
WIRE 2368 -944 2144 -944
WIRE 3008 -944 2752 -944
WIRE 3216 -944 3008 -944
WIRE -336 -896 -336 -944
WIRE 752 -896 752 -944
WIRE 1920 -896 1920 -944
WIRE 3008 -896 3008 -944
WIRE -112 -880 -112 -944
WIRE 112 -880 112 -944
WIRE 2144 -880 2144 -944
WIRE 2368 -880 2368 -944
WIRE 48 -832 32 -832
WIRE 2304 -832 2288 -832
WIRE -336 -800 -336 -816
WIRE 288 -800 256 -800
WIRE 400 -800 368 -800
WIRE 752 -800 752 -816
WIRE 1920 -800 1920 -816
WIRE 2544 -800 2512 -800
WIRE 2656 -800 2624 -800
WIRE 3008 -800 3008 -816
WIRE 496 -752 496 -944
WIRE 2752 -752 2752 -944
WIRE -112 -736 -112 -800
WIRE 32 -736 32 -832
WIRE 32 -736 -112 -736
WIRE 112 -736 112 -784
WIRE 256 -736 256 -800
WIRE 256 -736 112 -736
WIRE 400 -736 400 -800
WIRE 448 -736 400 -736
WIRE 2144 -736 2144 -800
WIRE 2288 -736 2288 -832
WIRE 2288 -736 2144 -736
WIRE 2368 -736 2368 -784
WIRE 2512 -736 2512 -800
WIRE 2512 -736 2368 -736
WIRE 2656 -736 2656 -800
WIRE 2704 -736 2656 -736
WIRE -112 -688 -112 -736
WIRE 112 -688 112 -736
WIRE 256 -688 256 -736
WIRE 288 -688 256 -688
WIRE 400 -688 400 -736
WIRE 400 -688 352 -688
WIRE 2144 -688 2144 -736
WIRE 2368 -688 2368 -736
WIRE 2512 -688 2512 -736
WIRE 2544 -688 2512 -688
WIRE 2656 -688 2656 -736
WIRE 2656 -688 2608 -688
WIRE -416 -640 -832 -640
WIRE -272 -640 -336 -640
WIRE -176 -640 -272 -640
WIRE 32 -640 32 -736
WIRE 48 -640 32 -640
WIRE 1840 -640 1424 -640
WIRE 1984 -640 1920 -640
WIRE 2080 -640 1984 -640
WIRE 2288 -640 2288 -736
WIRE 2304 -640 2288 -640
WIRE -272 -624 -272 -640
WIRE 1984 -624 1984 -640
WIRE -832 -544 -832 -560
WIRE 1424 -544 1424 -560
WIRE -272 -528 -272 -544
WIRE -112 -528 -112 -592
WIRE 112 -528 112 -592
WIRE 1984 -528 1984 -544
WIRE 2144 -528 2144 -592
WIRE 2368 -528 2368 -592
WIRE 496 -448 496 -656
WIRE 688 -448 496 -448
WIRE 960 -448 768 -448
WIRE 2752 -448 2752 -656
WIRE 2944 -448 2752 -448
WIRE 3216 -448 3216 -944
WIRE 3216 -448 3024 -448
WIRE -112 -320 -336 -320
WIRE 112 -320 -112 -320
WIRE 2144 -320 1920 -320
WIRE 2368 -320 2144 -320
WIRE -336 -272 -336 -320
WIRE 1920 -272 1920 -320
WIRE -112 -256 -112 -320
WIRE 112 -256 112 -320
WIRE 2144 -256 2144 -320
WIRE 2368 -256 2368 -320
WIRE 48 -208 32 -208
WIRE 2304 -208 2288 -208
WIRE 496 -192 496 -448
WIRE 2752 -192 2752 -448
WIRE -336 -176 -336 -192
WIRE 288 -176 256 -176
WIRE 400 -176 368 -176
WIRE 1920 -176 1920 -192
WIRE 2544 -176 2512 -176
WIRE 2656 -176 2624 -176
WIRE -112 -112 -112 -176
WIRE 32 -112 32 -208
WIRE 32 -112 -112 -112
WIRE 112 -112 112 -160
WIRE 256 -112 256 -176
WIRE 256 -112 112 -112
WIRE 400 -112 400 -176
WIRE 448 -112 400 -112
WIRE 2144 -112 2144 -176
WIRE 2288 -112 2288 -208
WIRE 2288 -112 2144 -112
WIRE 2368 -112 2368 -160
WIRE 2512 -112 2512 -176
WIRE 2512 -112 2368 -112
WIRE 2656 -112 2656 -176
WIRE 2704 -112 2656 -112
WIRE -112 -64 -112 -112
WIRE 112 -64 112 -112
WIRE 2144 -64 2144 -112
WIRE 2368 -64 2368 -112
WIRE 256 -48 256 -112
WIRE 288 -48 256 -48
WIRE 400 -48 400 -112
WIRE 400 -48 352 -48
WIRE 2512 -48 2512 -112
WIRE 2544 -48 2512 -48
WIRE 2656 -48 2656 -112
WIRE 2656 -48 2608 -48
WIRE -416 -16 -832 -16
WIRE -272 -16 -336 -16
WIRE -176 -16 -272 -16
WIRE 32 -16 32 -112
WIRE 48 -16 32 -16
WIRE 1840 -16 1424 -16
WIRE 1984 -16 1920 -16
WIRE 2080 -16 1984 -16
WIRE 2288 -16 2288 -112
WIRE 2304 -16 2288 -16
WIRE -272 0 -272 -16
WIRE 1984 0 1984 -16
WIRE -832 80 -832 64
WIRE 1424 80 1424 64
WIRE -272 96 -272 80
WIRE -112 96 -112 32
WIRE 112 96 112 32
WIRE 496 96 496 -96
WIRE 960 96 960 -448
WIRE 1984 96 1984 80
WIRE 2144 96 2144 32
WIRE 2368 96 2368 32
WIRE 2752 96 2752 -96
FLAG 112 96 0
FLAG -112 96 0
FLAG -272 96 0
FLAG -832 80 0
FLAG -336 -176 0
FLAG 112 -528 0
FLAG -112 -528 0
FLAG -272 -528 0
FLAG -832 -544 0
FLAG -336 -800 0
FLAG 496 96 0
FLAG 752 -800 0
FLAG 960 96 0
FLAG 2368 96 0
FLAG 2144 96 0
FLAG 1984 96 0
FLAG 1424 80 0
FLAG 1920 -176 0
FLAG 2368 -528 0
FLAG 2144 -528 0
FLAG 1984 -528 0
FLAG 1424 -544 0
FLAG 1920 -800 0
FLAG 2752 96 0
FLAG 3008 -800 0
SYMBOL npn 48 -256 R0
SYMATTR InstName Q1
SYMATTR Value BC846B
SYMBOL pnp 48 32 M180
SYMATTR InstName Q2
SYMATTR Value BC856B
SYMBOL npn -176 -64 R0
SYMATTR InstName Q3
SYMATTR Value BC846B
SYMBOL res -128 -272 R0
SYMATTR InstName R1
SYMATTR Value 4.7kR
SYMBOL res -288 -16 R0
SYMATTR InstName R2
SYMATTR Value 1kR
SYMBOL res -320 -32 R90
WINDOW 0 0 56 VBottom 2
WINDOW 3 32 56 VTop 2
SYMATTR InstName R3
SYMATTR Value 4.7kR
SYMBOL voltage -832 -32 R0
WINDOW 3 -169 158 Left 2
WINDOW 123 0 0 Left 0
WINDOW 39 -169 186 Left 2
SYMATTR Value 5
SYMATTR SpiceLine Rser=1
SYMATTR InstName V1
SYMBOL voltage -336 -288 R0
WINDOW 123 0 0 Left 0
WINDOW 39 24 44 Left 2
SYMATTR SpiceLine Rser=1
SYMATTR InstName V2
SYMATTR Value 12
SYMBOL npn 48 -880 R0
SYMATTR InstName Q4
SYMATTR Value BC846B
SYMBOL pnp 48 -592 M180
SYMATTR InstName Q5
SYMATTR Value BC856B
SYMBOL npn -176 -688 R0
SYMATTR InstName Q6
SYMATTR Value BC846B
SYMBOL res -128 -896 R0
SYMATTR InstName R4
SYMATTR Value 4.7kR
SYMBOL res -288 -640 R0
SYMATTR InstName R5
SYMATTR Value 1kR
SYMBOL res -320 -656 R90
WINDOW 0 0 56 VBottom 2
WINDOW 3 32 56 VTop 2
SYMATTR InstName R6
SYMATTR Value 4.7kR
SYMBOL voltage -832 -656 R0
WINDOW 3 -169 158 Left 2
WINDOW 123 0 0 Left 0
WINDOW 39 -169 186 Left 2
SYMATTR Value PULSE(0 5 0 0 0 0.000008 0.000016)
SYMATTR SpiceLine Rser=1
SYMATTR InstName V3
SYMBOL voltage -336 -912 R0
WINDOW 123 0 0 Left 0
WINDOW 39 24 44 Left 2
SYMATTR SpiceLine Rser=1
SYMATTR InstName V4
SYMATTR Value 12
SYMBOL nmos 448 -192 R0
SYMATTR InstName M1
SYMATTR Value IRFH5255
SYMBOL pmos 448 -656 M180
SYMATTR InstName M2
SYMATTR Value IRF7204
SYMBOL res 384 -816 R90
WINDOW 0 0 56 VBottom 2
WINDOW 3 32 56 VTop 2
SYMATTR InstName R7
SYMATTR Value 10R
SYMBOL res 384 -192 R90
WINDOW 0 0 56 VBottom 2
WINDOW 3 32 56 VTop 2
SYMATTR InstName R8
SYMATTR Value 10R
SYMBOL schottky 288 -704 M90
WINDOW 0 0 32 VBottom 2
WINDOW 3 32 32 VTop 2
SYMATTR InstName D1
SYMBOL schottky 352 -64 R90
WINDOW 0 0 32 VBottom 2
WINDOW 3 32 32 VTop 2
SYMATTR InstName D2
SYMBOL voltage 752 -912 R0
WINDOW 123 0 0 Left 0
WINDOW 39 24 44 Left 2
SYMATTR SpiceLine Rser=1
SYMATTR InstName V5
SYMATTR Value 12
SYMBOL res 784 -464 R90
WINDOW 0 0 56 VBottom 2
WINDOW 3 32 56 VTop 2
SYMATTR InstName R9
SYMATTR Value 10R
SYMBOL npn 2304 -256 R0
SYMATTR InstName Q7
SYMATTR Value BC846B
SYMBOL pnp 2304 32 M180
SYMATTR InstName Q8
SYMATTR Value BC856B
SYMBOL npn 2080 -64 R0
SYMATTR InstName Q9
SYMATTR Value BC846B
SYMBOL res 2128 -272 R0
SYMATTR InstName R10
SYMATTR Value 4.7kR
SYMBOL res 1968 -16 R0
SYMATTR InstName R11
SYMATTR Value 1kR
SYMBOL res 1936 -32 R90
WINDOW 0 0 56 VBottom 2
WINDOW 3 32 56 VTop 2
SYMATTR InstName R12
SYMATTR Value 4.7kR
SYMBOL voltage 1424 -656 R0
WINDOW 3 -169 158 Left 2
WINDOW 123 0 0 Left 0
WINDOW 39 -169 186 Left 2
SYMATTR Value 5
SYMATTR SpiceLine Rser=1
SYMATTR InstName V6
SYMBOL voltage 1920 -288 R0
WINDOW 123 0 0 Left 0
WINDOW 39 24 44 Left 2
SYMATTR SpiceLine Rser=1
SYMATTR InstName V7
SYMATTR Value 12
SYMBOL npn 2304 -880 R0
SYMATTR InstName Q10
SYMATTR Value BC846B
SYMBOL pnp 2304 -592 M180
SYMATTR InstName Q11
SYMATTR Value BC856B
SYMBOL npn 2080 -688 R0
SYMATTR InstName Q12
SYMATTR Value BC846B
SYMBOL res 2128 -896 R0
SYMATTR InstName R13
SYMATTR Value 4.7kR
SYMBOL res 1968 -640 R0
SYMATTR InstName R14
SYMATTR Value 1kR
SYMBOL res 1936 -656 R90
WINDOW 0 0 56 VBottom 2
WINDOW 3 32 56 VTop 2
SYMATTR InstName R15
SYMATTR Value 4.7kR
SYMBOL voltage 1424 -32 R0
WINDOW 3 -169 158 Left 2
WINDOW 123 0 0 Left 0
WINDOW 39 -169 186 Left 2
SYMATTR Value PULSE(0 5 0 0 0 0.000008 0.000016)
SYMATTR SpiceLine Rser=1
SYMATTR InstName V8
SYMBOL voltage 1920 -912 R0
WINDOW 123 0 0 Left 0
WINDOW 39 24 44 Left 2
SYMATTR SpiceLine Rser=1
SYMATTR InstName V9
SYMATTR Value 12
SYMBOL nmos 2704 -192 R0
SYMATTR InstName M3
SYMATTR Value IRFH5255
SYMBOL pmos 2704 -656 M180
SYMATTR InstName M4
SYMATTR Value IRF7204
SYMBOL res 2640 -816 R90
WINDOW 0 0 56 VBottom 2
WINDOW 3 32 56 VTop 2
SYMATTR InstName R16
SYMATTR Value 10R
SYMBOL res 2640 -192 R90
WINDOW 0 0 56 VBottom 2
WINDOW 3 32 56 VTop 2
SYMATTR InstName R17
SYMATTR Value 10R
SYMBOL schottky 2544 -704 M90
WINDOW 0 0 32 VBottom 2
WINDOW 3 32 32 VTop 2
SYMATTR InstName D3
SYMBOL schottky 2608 -64 R90
WINDOW 0 0 32 VBottom 2
WINDOW 3 32 32 VTop 2
SYMATTR InstName D4
SYMBOL voltage 3008 -912 R0
WINDOW 123 0 0 Left 0
WINDOW 39 24 44 Left 2
SYMATTR SpiceLine Rser=1
SYMATTR InstName V10
SYMATTR Value 12
SYMBOL res 3040 -464 R90
WINDOW 0 0 56 VBottom 2
WINDOW 3 32 56 VTop 2
SYMATTR InstName R18
SYMATTR Value 10R
TEXT -832 344 Left 2 !.tran 0.00004
